-- Auto-generated from Volume.m

WIDTH=16;
DEPTH=256;
ADDRESS_RADIX=HEX;
DATA_RADIX=HEX;

CONTENT BEGIN
 00 : 0000;
 01 : 0007;
 02 : 0007;
 03 : 0007;
 04 : 0008;
 05 : 0008;
 06 : 0008;
 07 : 0008;
 08 : 0009;
 09 : 0009;
 0A : 0009;
 0B : 000A;
 0C : 000A;
 0D : 000A;
 0E : 000B;
 0F : 000B;
 10 : 000C;
 11 : 000C;
 12 : 000D;
 13 : 000D;
 14 : 000D;
 15 : 000E;
 16 : 000F;
 17 : 000F;
 18 : 0010;
 19 : 0010;
 1A : 0011;
 1B : 0011;
 1C : 0012;
 1D : 0013;
 1E : 0013;
 1F : 0014;
 20 : 0015;
 21 : 0016;
 22 : 0016;
 23 : 0017;
 24 : 0018;
 25 : 0019;
 26 : 001A;
 27 : 001B;
 28 : 001C;
 29 : 001D;
 2A : 001E;
 2B : 001F;
 2C : 0020;
 2D : 0021;
 2E : 0023;
 2F : 0024;
 30 : 0025;
 31 : 0026;
 32 : 0028;
 33 : 0029;
 34 : 002B;
 35 : 002C;
 36 : 002E;
 37 : 0030;
 38 : 0032;
 39 : 0033;
 3A : 0035;
 3B : 0037;
 3C : 0039;
 3D : 003B;
 3E : 003E;
 3F : 0040;
 40 : 0042;
 41 : 0045;
 42 : 0047;
 43 : 004A;
 44 : 004C;
 45 : 004F;
 46 : 0052;
 47 : 0055;
 48 : 0058;
 49 : 005C;
 4A : 005F;
 4B : 0062;
 4C : 0066;
 4D : 006A;
 4E : 006E;
 4F : 0072;
 50 : 0076;
 51 : 007A;
 52 : 007F;
 53 : 0083;
 54 : 0088;
 55 : 008D;
 56 : 0092;
 57 : 0098;
 58 : 009D;
 59 : 00A3;
 5A : 00A9;
 5B : 00AF;
 5C : 00B6;
 5D : 00BC;
 5E : 00C3;
 5F : 00CB;
 60 : 00D2;
 61 : 00DA;
 62 : 00E2;
 63 : 00EA;
 64 : 00F3;
 65 : 00FC;
 66 : 0105;
 67 : 010E;
 68 : 0118;
 69 : 0123;
 6A : 012D;
 6B : 0139;
 6C : 0144;
 6D : 0150;
 6E : 015C;
 6F : 0169;
 70 : 0176;
 71 : 0184;
 72 : 0192;
 73 : 01A1;
 74 : 01B1;
 75 : 01C1;
 76 : 01D1;
 77 : 01E2;
 78 : 01F4;
 79 : 0206;
 7A : 0219;
 7B : 022D;
 7C : 0242;
 7D : 0257;
 7E : 026D;
 7F : 0284;
 80 : 029B;
 81 : 02B4;
 82 : 02CD;
 83 : 02E8;
 84 : 0303;
 85 : 031F;
 86 : 033D;
 87 : 035B;
 88 : 037B;
 89 : 039C;
 8A : 03BE;
 8B : 03E1;
 8C : 0405;
 8D : 042B;
 8E : 0452;
 8F : 047B;
 90 : 04A5;
 91 : 04D1;
 92 : 04FE;
 93 : 052D;
 94 : 055E;
 95 : 0591;
 96 : 05C5;
 97 : 05FB;
 98 : 0634;
 99 : 066E;
 9A : 06AB;
 9B : 06E9;
 9C : 072B;
 9D : 076E;
 9E : 07B4;
 9F : 07FD;
 A0 : 0848;
 A1 : 0896;
 A2 : 08E7;
 A3 : 093A;
 A4 : 0991;
 A5 : 09EB;
 A6 : 0A49;
 A7 : 0AA9;
 A8 : 0B0E;
 A9 : 0B76;
 AA : 0BE2;
 AB : 0C52;
 AC : 0CC6;
 AD : 0D3E;
 AE : 0DBB;
 AF : 0E3C;
 B0 : 0EC2;
 B1 : 0F4D;
 B2 : 0FDD;
 B3 : 1072;
 B4 : 110D;
 B5 : 11AE;
 B6 : 1254;
 B7 : 1301;
 B8 : 13B4;
 B9 : 146D;
 BA : 152E;
 BB : 15F5;
 BC : 16C4;
 BD : 179A;
 BE : 1878;
 BF : 195F;
 C0 : 1A4D;
 C1 : 1B45;
 C2 : 1C46;
 C3 : 1D50;
 C4 : 1E64;
 C5 : 1F82;
 C6 : 20AB;
 C7 : 21DE;
 C8 : 231D;
 C9 : 2468;
 CA : 25BF;
 CB : 2722;
 CC : 2893;
 CD : 2A11;
 CE : 2B9D;
 CF : 2D37;
 D0 : 2EE1;
 D1 : 309A;
 D2 : 3264;
 D3 : 343E;
 D4 : 362A;
 D5 : 3828;
 D6 : 3A39;
 D7 : 3C5D;
 D8 : 3E96;
 D9 : 40E3;
 DA : 4346;
 DB : 45BF;
 DC : 4850;
 DD : 4AF9;
 DE : 4DBB;
 DF : 5097;
 E0 : 538D;
 E1 : 56A0;
 E2 : 59D0;
 E3 : 5D1D;
 E4 : 608A;
 E5 : 6417;
 E6 : 67C5;
 E7 : 6B96;
 E8 : 6F8B;
 E9 : 73A6;
 EA : 77E7;
 EB : 7C4F;
 EC : 80E2;
 ED : 859F;
 EE : 8A8A;
 EF : 8FA2;
 F0 : 94EA;
 F1 : 9A64;
 F2 : A012;
 F3 : A5F5;
 F4 : AC10;
 F5 : B264;
 F6 : B8F3;
 F7 : BFC1;
 F8 : C6CE;
 F9 : CE1E;
 FA : D5B3;
 FB : DD8F;
 FC : E5B5;
 FD : EE28;
 FE : F6EA;
 FF : FFFF;
END;
